
*** ChampSim Multicore Out-of-Order Simulator ***

Warmup Instructions: 50000000
Simulation Instructions: 200000000
Number of CPUs: 1
LLC sets: 2048
LLC ways: 16
Off-chip DRAM Size: 4096 MB Channels: 1 Width: 64-bit Data Rate: 3200 MT/s

CPU 0 runs trab_traces//450.soplex-92B.champsimtrace.xz
CPU 0 L1D next line prefetcher
L2C Signature Path Prefetcher
Initialize DRRIP state
Assign rand_sets[0]: 454  LLC: 2048
rand_sets[0]: 454
Assign rand_sets[1]: 1662  LLC: 2048
rand_sets[1]: 1662
Assign rand_sets[2]: 1921  LLC: 2048
rand_sets[2]: 1921
Assign rand_sets[3]: 1131  LLC: 2048
rand_sets[3]: 1131
Assign rand_sets[4]: 331  LLC: 2048
rand_sets[4]: 331
Assign rand_sets[5]: 1531  LLC: 2048
rand_sets[5]: 1531
Assign rand_sets[6]: 482  LLC: 2048
rand_sets[6]: 482
Assign rand_sets[7]: 1275  LLC: 2048
rand_sets[7]: 1275
Assign rand_sets[8]: 1876  LLC: 2048
rand_sets[8]: 1876
Assign rand_sets[9]: 2038  LLC: 2048
rand_sets[9]: 2038
Assign rand_sets[10]: 701  LLC: 2048
rand_sets[10]: 701
Assign rand_sets[11]: 479  LLC: 2048
rand_sets[11]: 479
Assign rand_sets[12]: 892  LLC: 2048
rand_sets[12]: 892
Assign rand_sets[13]: 1820  LLC: 2048
rand_sets[13]: 1820
Assign rand_sets[14]: 1505  LLC: 2048
rand_sets[14]: 1505
Assign rand_sets[15]: 1159  LLC: 2048
rand_sets[15]: 1159
Assign rand_sets[16]: 513  LLC: 2048
rand_sets[16]: 513
Assign rand_sets[17]: 703  LLC: 2048
rand_sets[17]: 703
Assign rand_sets[18]: 561  LLC: 2048
rand_sets[18]: 561
Assign rand_sets[19]: 990  LLC: 2048
rand_sets[19]: 990
Assign rand_sets[20]: 342  LLC: 2048
rand_sets[20]: 342
Assign rand_sets[21]: 882  LLC: 2048
rand_sets[21]: 882
Assign rand_sets[22]: 15  LLC: 2048
rand_sets[22]: 15
Assign rand_sets[23]: 71  LLC: 2048
rand_sets[23]: 71
Assign rand_sets[24]: 1127  LLC: 2048
rand_sets[24]: 1127
Assign rand_sets[25]: 1382  LLC: 2048
rand_sets[25]: 1382
Assign rand_sets[26]: 647  LLC: 2048
rand_sets[26]: 647
Assign rand_sets[27]: 857  LLC: 2048
rand_sets[27]: 857
Assign rand_sets[28]: 1450  LLC: 2048
rand_sets[28]: 1450
Assign rand_sets[29]: 1160  LLC: 2048
rand_sets[29]: 1160
Assign rand_sets[30]: 1852  LLC: 2048
rand_sets[30]: 1852
Assign rand_sets[31]: 1881  LLC: 2048
rand_sets[31]: 1881
Assign rand_sets[32]: 1770  LLC: 2048
rand_sets[32]: 1770
Assign rand_sets[33]: 1622  LLC: 2048
rand_sets[33]: 1622
Assign rand_sets[34]: 275  LLC: 2048
rand_sets[34]: 275
Assign rand_sets[35]: 635  LLC: 2048
rand_sets[35]: 635
Assign rand_sets[36]: 466  LLC: 2048
rand_sets[36]: 466
Assign rand_sets[37]: 1413  LLC: 2048
rand_sets[37]: 1413
Assign rand_sets[38]: 417  LLC: 2048
rand_sets[38]: 417
Assign rand_sets[39]: 472  LLC: 2048
rand_sets[39]: 472
Assign rand_sets[40]: 1340  LLC: 2048
rand_sets[40]: 1340
Assign rand_sets[41]: 852  LLC: 2048
rand_sets[41]: 852
Assign rand_sets[42]: 1365  LLC: 2048
rand_sets[42]: 1365
Assign rand_sets[43]: 47  LLC: 2048
rand_sets[43]: 47
Assign rand_sets[44]: 823  LLC: 2048
rand_sets[44]: 823
Assign rand_sets[45]: 686  LLC: 2048
rand_sets[45]: 686
Assign rand_sets[46]: 1637  LLC: 2048
rand_sets[46]: 1637
Assign rand_sets[47]: 1115  LLC: 2048
rand_sets[47]: 1115
Assign rand_sets[48]: 986  LLC: 2048
rand_sets[48]: 986
Assign rand_sets[49]: 258  LLC: 2048
rand_sets[49]: 258
Assign rand_sets[50]: 633  LLC: 2048
rand_sets[50]: 633
Assign rand_sets[51]: 920  LLC: 2048
rand_sets[51]: 920
Assign rand_sets[52]: 204  LLC: 2048
rand_sets[52]: 204
Assign rand_sets[53]: 227  LLC: 2048
rand_sets[53]: 227
Assign rand_sets[54]: 1818  LLC: 2048
rand_sets[54]: 1818
Assign rand_sets[55]: 886  LLC: 2048
rand_sets[55]: 886
Assign rand_sets[56]: 1422  LLC: 2048
rand_sets[56]: 1422
Assign rand_sets[57]: 607  LLC: 2048
rand_sets[57]: 607
Assign rand_sets[58]: 217  LLC: 2048
rand_sets[58]: 217
Assign rand_sets[59]: 1945  LLC: 2048
rand_sets[59]: 1945
Assign rand_sets[60]: 143  LLC: 2048
rand_sets[60]: 143
Assign rand_sets[61]: 1311  LLC: 2048
rand_sets[61]: 1311
Assign rand_sets[62]: 319  LLC: 2048
rand_sets[62]: 319
Assign rand_sets[63]: 1846  LLC: 2048
rand_sets[63]: 1846
LLC Next Line Prefetcher
Heartbeat CPU 0 instructions: 10000000 cycles: 3665096 heartbeat IPC: 2.72844 cumulative IPC: 2.72844 (Simulation time: 0 hr 0 min 18 sec) 
Heartbeat CPU 0 instructions: 20000002 cycles: 7394123 heartbeat IPC: 2.68167 cumulative IPC: 2.70485 (Simulation time: 0 hr 0 min 37 sec) 
Heartbeat CPU 0 instructions: 30000003 cycles: 11106138 heartbeat IPC: 2.69395 cumulative IPC: 2.70121 (Simulation time: 0 hr 0 min 56 sec) 
Heartbeat CPU 0 instructions: 40000002 cycles: 14811215 heartbeat IPC: 2.699 cumulative IPC: 2.70066 (Simulation time: 0 hr 1 min 14 sec) 
Heartbeat CPU 0 instructions: 50000003 cycles: 18455691 heartbeat IPC: 2.74388 cumulative IPC: 2.70919 (Simulation time: 0 hr 1 min 32 sec) 

Warmup complete CPU 0 instructions: 50000003 cycles: 18455691 (Simulation time: 0 hr 1 min 32 sec) 

Heartbeat CPU 0 instructions: 60000000 cycles: 35824026 heartbeat IPC: 0.57576 cumulative IPC: 0.57576 (Simulation time: 0 hr 1 min 51 sec) 
Heartbeat CPU 0 instructions: 70000001 cycles: 60354097 heartbeat IPC: 0.407663 cumulative IPC: 0.477345 (Simulation time: 0 hr 2 min 17 sec) 
Heartbeat CPU 0 instructions: 80000002 cycles: 76033546 heartbeat IPC: 0.637778 cumulative IPC: 0.521034 (Simulation time: 0 hr 2 min 38 sec) 
Heartbeat CPU 0 instructions: 90000001 cycles: 93636487 heartbeat IPC: 0.568087 cumulative IPC: 0.532051 (Simulation time: 0 hr 2 min 57 sec) 
Heartbeat CPU 0 instructions: 100000001 cycles: 113074518 heartbeat IPC: 0.514455 cumulative IPC: 0.528436 (Simulation time: 0 hr 3 min 16 sec) 
Heartbeat CPU 0 instructions: 110000000 cycles: 129856506 heartbeat IPC: 0.595877 cumulative IPC: 0.538596 (Simulation time: 0 hr 3 min 34 sec) 
Heartbeat CPU 0 instructions: 120000002 cycles: 146729866 heartbeat IPC: 0.59265 cumulative IPC: 0.545706 (Simulation time: 0 hr 3 min 51 sec) 
Heartbeat CPU 0 instructions: 130000002 cycles: 164966289 heartbeat IPC: 0.548353 cumulative IPC: 0.546036 (Simulation time: 0 hr 4 min 11 sec) 
Heartbeat CPU 0 instructions: 140000003 cycles: 182657007 heartbeat IPC: 0.565268 cumulative IPC: 0.548108 (Simulation time: 0 hr 4 min 29 sec) 
Heartbeat CPU 0 instructions: 150000002 cycles: 200308152 heartbeat IPC: 0.566535 cumulative IPC: 0.549896 (Simulation time: 0 hr 4 min 47 sec) 
Heartbeat CPU 0 instructions: 160000000 cycles: 217802573 heartbeat IPC: 0.571611 cumulative IPC: 0.551802 (Simulation time: 0 hr 5 min 5 sec) 
Heartbeat CPU 0 instructions: 170000000 cycles: 238648390 heartbeat IPC: 0.479713 cumulative IPC: 0.544977 (Simulation time: 0 hr 5 min 25 sec) 
Heartbeat CPU 0 instructions: 180000003 cycles: 259360325 heartbeat IPC: 0.482814 cumulative IPC: 0.539633 (Simulation time: 0 hr 5 min 51 sec) 
Heartbeat CPU 0 instructions: 190000000 cycles: 275360650 heartbeat IPC: 0.624987 cumulative IPC: 0.544949 (Simulation time: 0 hr 6 min 11 sec) 
Heartbeat CPU 0 instructions: 200000000 cycles: 293794907 heartbeat IPC: 0.542468 cumulative IPC: 0.544783 (Simulation time: 0 hr 6 min 30 sec) 
Heartbeat CPU 0 instructions: 210000002 cycles: 311287079 heartbeat IPC: 0.571684 cumulative IPC: 0.54639 (Simulation time: 0 hr 6 min 48 sec) 
Heartbeat CPU 0 instructions: 220000000 cycles: 328979161 heartbeat IPC: 0.565224 cumulative IPC: 0.547463 (Simulation time: 0 hr 7 min 6 sec) 
Heartbeat CPU 0 instructions: 230000002 cycles: 346582714 heartbeat IPC: 0.568067 cumulative IPC: 0.548568 (Simulation time: 0 hr 7 min 24 sec) 
Heartbeat CPU 0 instructions: 240000000 cycles: 363728402 heartbeat IPC: 0.583237 cumulative IPC: 0.55029 (Simulation time: 0 hr 7 min 42 sec) 
Heartbeat CPU 0 instructions: 250000000 cycles: 383712256 heartbeat IPC: 0.500404 cumulative IPC: 0.54756 (Simulation time: 0 hr 8 min 2 sec) 
Finished CPU 0 instructions: 200000000 cycles: 365256566 cumulative IPC: 0.54756 (Simulation time: 0 hr 8 min 2 sec) 

ChampSim completed all CPUs

Region of Interest Statistics

CPU 0 cumulative IPC: 0.54756 instructions: 200000000 cycles: 365256566
L1D TOTAL     ACCESS:   73015967  HIT:   62852480  MISS:   10163487
L1D LOAD      ACCESS:   31979639  HIT:   27458162  MISS:    4521477
L1D RFO       ACCESS:   11230568  HIT:    9946775  MISS:    1283793
L1D PREFETCH  ACCESS:   29805760  HIT:   25447543  MISS:    4358217
L1D WRITEBACK ACCESS:          0  HIT:          0  MISS:          0
L1D PREFETCH  REQUESTED:   43963231  ISSUED:   43464457  USEFUL:    2438051  USELESS:    3054461
L1D AVERAGE MISS LATENCY: 108.221 cycles
L1I TOTAL     ACCESS:   35392151  HIT:   35390607  MISS:       1544
L1I LOAD      ACCESS:   35391395  HIT:   35390384  MISS:       1011
L1I RFO       ACCESS:          0  HIT:          0  MISS:          0
L1I PREFETCH  ACCESS:        756  HIT:        223  MISS:        533
L1I WRITEBACK ACCESS:          0  HIT:          0  MISS:          0
L1I PREFETCH  REQUESTED:       2681  ISSUED:       2681  USEFUL:        499  USELESS:        156
L1I AVERAGE MISS LATENCY: 157.898 cycles
L2C TOTAL     ACCESS:   15206184  HIT:    7729101  MISS:    7477083
L2C LOAD      ACCESS:    4015451  HIT:    1738050  MISS:    2277401
L2C RFO       ACCESS:    1283475  HIT:     148705  MISS:    1134770
L2C PREFETCH  ACCESS:    6636046  HIT:    2573123  MISS:    4062923
L2C WRITEBACK ACCESS:    3271212  HIT:    3269223  MISS:       1989
L2C PREFETCH  REQUESTED:   20550304  ISSUED:   18394606  USEFUL:     825232  USELESS:    4278357
L2C AVERAGE MISS LATENCY: 148.698 cycles
LLC TOTAL     ACCESS:   23626400  HIT:   16898317  MISS:    6728083
LLC LOAD      ACCESS:    2224919  HIT:    1115926  MISS:    1108993
LLC RFO       ACCESS:    1134763  HIT:     169877  MISS:     964886
LLC PREFETCH  ACCESS:   17877558  HIT:   13333866  MISS:    4543692
LLC WRITEBACK ACCESS:    2389160  HIT:    2278648  MISS:     110512
LLC PREFETCH  REQUESTED:   17757872  ISSUED:   17464849  USEFUL:     912245  USELESS:    4759786
LLC AVERAGE MISS LATENCY: 253.088 cycles
Major fault: 0 Minor fault: 12867
CPU 0 L1D next line prefetcher final stats

L2C Signature Path Prefetcher final stats
LLC Next Line Prefetcher Final Stats: none

DRAM Statistics
 CHANNEL 0
 RQ ROW_BUFFER_HIT:    2067648  ROW_BUFFER_MISS:    4547414
 DBUS_CONGESTED:    4155848
 WQ ROW_BUFFER_HIT:     358236  ROW_BUFFER_MISS:    1440898  FULL:          0

 AVG_CONGESTED_CYCLE: 6

CPU 0 Branch Prediction Accuracy: 94.6713% MPKI: 10.3853 Average ROB Occupancy at Mispredict: 31.0247

Branch types
NOT_BRANCH: 161020853 80.5104%
BRANCH_DIRECT_JUMP: 749458 0.374729%
BRANCH_INDIRECT: 60 3e-05%
BRANCH_CONDITIONAL: 37281230 18.6406%
BRANCH_DIRECT_CALL: 473691 0.236845%
BRANCH_INDIRECT_CALL: 337 0.0001685%
BRANCH_RETURN: 474030 0.237015%
BRANCH_OTHER: 0 0%

