
*** ChampSim Multicore Out-of-Order Simulator ***

Warmup Instructions: 50000000
Simulation Instructions: 200000000
Number of CPUs: 1
LLC sets: 2048
LLC ways: 16
Off-chip DRAM Size: 4096 MB Channels: 1 Width: 64-bit Data Rate: 3200 MT/s

CPU 0 runs trab_traces//625.x264_s-20B.champsimtrace.xz
CPU 0 L1D next line prefetcher
L2C Signature Path Prefetcher
Initialize DRRIP state
Assign rand_sets[0]: 454  LLC: 2048
rand_sets[0]: 454
Assign rand_sets[1]: 1662  LLC: 2048
rand_sets[1]: 1662
Assign rand_sets[2]: 1921  LLC: 2048
rand_sets[2]: 1921
Assign rand_sets[3]: 1131  LLC: 2048
rand_sets[3]: 1131
Assign rand_sets[4]: 331  LLC: 2048
rand_sets[4]: 331
Assign rand_sets[5]: 1531  LLC: 2048
rand_sets[5]: 1531
Assign rand_sets[6]: 482  LLC: 2048
rand_sets[6]: 482
Assign rand_sets[7]: 1275  LLC: 2048
rand_sets[7]: 1275
Assign rand_sets[8]: 1876  LLC: 2048
rand_sets[8]: 1876
Assign rand_sets[9]: 2038  LLC: 2048
rand_sets[9]: 2038
Assign rand_sets[10]: 701  LLC: 2048
rand_sets[10]: 701
Assign rand_sets[11]: 479  LLC: 2048
rand_sets[11]: 479
Assign rand_sets[12]: 892  LLC: 2048
rand_sets[12]: 892
Assign rand_sets[13]: 1820  LLC: 2048
rand_sets[13]: 1820
Assign rand_sets[14]: 1505  LLC: 2048
rand_sets[14]: 1505
Assign rand_sets[15]: 1159  LLC: 2048
rand_sets[15]: 1159
Assign rand_sets[16]: 513  LLC: 2048
rand_sets[16]: 513
Assign rand_sets[17]: 703  LLC: 2048
rand_sets[17]: 703
Assign rand_sets[18]: 561  LLC: 2048
rand_sets[18]: 561
Assign rand_sets[19]: 990  LLC: 2048
rand_sets[19]: 990
Assign rand_sets[20]: 342  LLC: 2048
rand_sets[20]: 342
Assign rand_sets[21]: 882  LLC: 2048
rand_sets[21]: 882
Assign rand_sets[22]: 15  LLC: 2048
rand_sets[22]: 15
Assign rand_sets[23]: 71  LLC: 2048
rand_sets[23]: 71
Assign rand_sets[24]: 1127  LLC: 2048
rand_sets[24]: 1127
Assign rand_sets[25]: 1382  LLC: 2048
rand_sets[25]: 1382
Assign rand_sets[26]: 647  LLC: 2048
rand_sets[26]: 647
Assign rand_sets[27]: 857  LLC: 2048
rand_sets[27]: 857
Assign rand_sets[28]: 1450  LLC: 2048
rand_sets[28]: 1450
Assign rand_sets[29]: 1160  LLC: 2048
rand_sets[29]: 1160
Assign rand_sets[30]: 1852  LLC: 2048
rand_sets[30]: 1852
Assign rand_sets[31]: 1881  LLC: 2048
rand_sets[31]: 1881
Assign rand_sets[32]: 1770  LLC: 2048
rand_sets[32]: 1770
Assign rand_sets[33]: 1622  LLC: 2048
rand_sets[33]: 1622
Assign rand_sets[34]: 275  LLC: 2048
rand_sets[34]: 275
Assign rand_sets[35]: 635  LLC: 2048
rand_sets[35]: 635
Assign rand_sets[36]: 466  LLC: 2048
rand_sets[36]: 466
Assign rand_sets[37]: 1413  LLC: 2048
rand_sets[37]: 1413
Assign rand_sets[38]: 417  LLC: 2048
rand_sets[38]: 417
Assign rand_sets[39]: 472  LLC: 2048
rand_sets[39]: 472
Assign rand_sets[40]: 1340  LLC: 2048
rand_sets[40]: 1340
Assign rand_sets[41]: 852  LLC: 2048
rand_sets[41]: 852
Assign rand_sets[42]: 1365  LLC: 2048
rand_sets[42]: 1365
Assign rand_sets[43]: 47  LLC: 2048
rand_sets[43]: 47
Assign rand_sets[44]: 823  LLC: 2048
rand_sets[44]: 823
Assign rand_sets[45]: 686  LLC: 2048
rand_sets[45]: 686
Assign rand_sets[46]: 1637  LLC: 2048
rand_sets[46]: 1637
Assign rand_sets[47]: 1115  LLC: 2048
rand_sets[47]: 1115
Assign rand_sets[48]: 986  LLC: 2048
rand_sets[48]: 986
Assign rand_sets[49]: 258  LLC: 2048
rand_sets[49]: 258
Assign rand_sets[50]: 633  LLC: 2048
rand_sets[50]: 633
Assign rand_sets[51]: 920  LLC: 2048
rand_sets[51]: 920
Assign rand_sets[52]: 204  LLC: 2048
rand_sets[52]: 204
Assign rand_sets[53]: 227  LLC: 2048
rand_sets[53]: 227
Assign rand_sets[54]: 1818  LLC: 2048
rand_sets[54]: 1818
Assign rand_sets[55]: 886  LLC: 2048
rand_sets[55]: 886
Assign rand_sets[56]: 1422  LLC: 2048
rand_sets[56]: 1422
Assign rand_sets[57]: 607  LLC: 2048
rand_sets[57]: 607
Assign rand_sets[58]: 217  LLC: 2048
rand_sets[58]: 217
Assign rand_sets[59]: 1945  LLC: 2048
rand_sets[59]: 1945
Assign rand_sets[60]: 143  LLC: 2048
rand_sets[60]: 143
Assign rand_sets[61]: 1311  LLC: 2048
rand_sets[61]: 1311
Assign rand_sets[62]: 319  LLC: 2048
rand_sets[62]: 319
Assign rand_sets[63]: 1846  LLC: 2048
rand_sets[63]: 1846
LLC Next Line Prefetcher
Heartbeat CPU 0 instructions: 10000002 cycles: 3225732 heartbeat IPC: 3.10007 cumulative IPC: 3.10007 (Simulation time: 0 hr 0 min 15 sec) 
Heartbeat CPU 0 instructions: 20000002 cycles: 6561972 heartbeat IPC: 2.99739 cumulative IPC: 3.04786 (Simulation time: 0 hr 0 min 31 sec) 
Heartbeat CPU 0 instructions: 30000001 cycles: 9902982 heartbeat IPC: 2.99311 cumulative IPC: 3.02939 (Simulation time: 0 hr 0 min 46 sec) 
Heartbeat CPU 0 instructions: 40000001 cycles: 13243995 heartbeat IPC: 2.9931 cumulative IPC: 3.02024 (Simulation time: 0 hr 1 min 2 sec) 
Heartbeat CPU 0 instructions: 50000001 cycles: 16582393 heartbeat IPC: 2.99545 cumulative IPC: 3.01525 (Simulation time: 0 hr 1 min 18 sec) 

Warmup complete CPU 0 instructions: 50000001 cycles: 16582393 (Simulation time: 0 hr 1 min 18 sec) 

Heartbeat CPU 0 instructions: 60000003 cycles: 22348941 heartbeat IPC: 1.73414 cumulative IPC: 1.73414 (Simulation time: 0 hr 1 min 30 sec) 
Heartbeat CPU 0 instructions: 70000000 cycles: 28090853 heartbeat IPC: 1.74158 cumulative IPC: 1.73785 (Simulation time: 0 hr 1 min 42 sec) 
Heartbeat CPU 0 instructions: 80000000 cycles: 33820736 heartbeat IPC: 1.74524 cumulative IPC: 1.74031 (Simulation time: 0 hr 1 min 54 sec) 
Heartbeat CPU 0 instructions: 90000001 cycles: 42518933 heartbeat IPC: 1.14966 cumulative IPC: 1.54223 (Simulation time: 0 hr 2 min 8 sec) 
Heartbeat CPU 0 instructions: 100000001 cycles: 48300156 heartbeat IPC: 1.72974 cumulative IPC: 1.5764 (Simulation time: 0 hr 2 min 17 sec) 
Heartbeat CPU 0 instructions: 110000000 cycles: 54510597 heartbeat IPC: 1.61019 cumulative IPC: 1.58194 (Simulation time: 0 hr 2 min 27 sec) 
Heartbeat CPU 0 instructions: 120000002 cycles: 60241619 heartbeat IPC: 1.74489 cumulative IPC: 1.60333 (Simulation time: 0 hr 2 min 39 sec) 
Heartbeat CPU 0 instructions: 130000000 cycles: 65943139 heartbeat IPC: 1.75392 cumulative IPC: 1.62072 (Simulation time: 0 hr 2 min 51 sec) 
Heartbeat CPU 0 instructions: 140000001 cycles: 71642266 heartbeat IPC: 1.75465 cumulative IPC: 1.63458 (Simulation time: 0 hr 3 min 3 sec) 
Heartbeat CPU 0 instructions: 150000001 cycles: 77322508 heartbeat IPC: 1.76049 cumulative IPC: 1.64636 (Simulation time: 0 hr 3 min 14 sec) 
Heartbeat CPU 0 instructions: 160000000 cycles: 83013511 heartbeat IPC: 1.75716 cumulative IPC: 1.65585 (Simulation time: 0 hr 3 min 26 sec) 
Heartbeat CPU 0 instructions: 170000000 cycles: 88695087 heartbeat IPC: 1.76007 cumulative IPC: 1.66406 (Simulation time: 0 hr 3 min 38 sec) 
Heartbeat CPU 0 instructions: 180000000 cycles: 94385621 heartbeat IPC: 1.7573 cumulative IPC: 1.67088 (Simulation time: 0 hr 3 min 50 sec) 
Heartbeat CPU 0 instructions: 190000000 cycles: 100075147 heartbeat IPC: 1.75762 cumulative IPC: 1.67679 (Simulation time: 0 hr 4 min 2 sec) 
Heartbeat CPU 0 instructions: 200000000 cycles: 105768866 heartbeat IPC: 1.75632 cumulative IPC: 1.68187 (Simulation time: 0 hr 4 min 13 sec) 
Heartbeat CPU 0 instructions: 210000000 cycles: 111448339 heartbeat IPC: 1.76073 cumulative IPC: 1.68659 (Simulation time: 0 hr 4 min 25 sec) 
Heartbeat CPU 0 instructions: 220000000 cycles: 117134531 heartbeat IPC: 1.75865 cumulative IPC: 1.69067 (Simulation time: 0 hr 4 min 37 sec) 
Heartbeat CPU 0 instructions: 230000000 cycles: 122805377 heartbeat IPC: 1.76341 cumulative IPC: 1.69455 (Simulation time: 0 hr 4 min 49 sec) 
Heartbeat CPU 0 instructions: 240000001 cycles: 128476776 heartbeat IPC: 1.76323 cumulative IPC: 1.69803 (Simulation time: 0 hr 5 min 1 sec) 
Heartbeat CPU 0 instructions: 250000003 cycles: 134146312 heartbeat IPC: 1.76381 cumulative IPC: 1.7012 (Simulation time: 0 hr 5 min 13 sec) 
Finished CPU 0 instructions: 200000002 cycles: 117563919 cumulative IPC: 1.7012 (Simulation time: 0 hr 5 min 13 sec) 

ChampSim completed all CPUs

Region of Interest Statistics

CPU 0 cumulative IPC: 1.7012 instructions: 200000002 cycles: 117563919
L1D TOTAL     ACCESS:   50855563  HIT:   50335672  MISS:     519891
L1D LOAD      ACCESS:   17987925  HIT:   17783576  MISS:     204349
L1D RFO       ACCESS:   15247599  HIT:   15143965  MISS:     103634
L1D PREFETCH  ACCESS:   17620039  HIT:   17408131  MISS:     211908
L1D WRITEBACK ACCESS:          0  HIT:          0  MISS:          0
L1D PREFETCH  REQUESTED:   26975013  ISSUED:   26718112  USEFUL:     160461  USELESS:     235650
L1D AVERAGE MISS LATENCY: 69.1505 cycles
L1I TOTAL     ACCESS:   32162462  HIT:   32070011  MISS:      92451
L1I LOAD      ACCESS:   32105562  HIT:   32043077  MISS:      62485
L1I RFO       ACCESS:          0  HIT:          0  MISS:          0
L1I PREFETCH  ACCESS:      56900  HIT:      26934  MISS:      29966
L1I WRITEBACK ACCESS:          0  HIT:          0  MISS:          0
L1I PREFETCH  REQUESTED:     246168  ISSUED:     246168  USEFUL:      58310  USELESS:      16238
L1I AVERAGE MISS LATENCY: 14.4823 cycles
L2C TOTAL     ACCESS:     802422  HIT:     551712  MISS:     250710
L2C LOAD      ACCESS:     230948  HIT:     183202  MISS:      47746
L2C RFO       ACCESS:     102101  HIT:      43730  MISS:      58371
L2C PREFETCH  ACCESS:     340147  HIT:     195764  MISS:     144383
L2C WRITEBACK ACCESS:     129226  HIT:     129016  MISS:        210
L2C PREFETCH  REQUESTED:    1088745  ISSUED:     985044  USEFUL:      54753  USELESS:     161405
L2C AVERAGE MISS LATENCY: 146.222 cycles
LLC TOTAL     ACCESS:     966616  HIT:     754243  MISS:     212373
LLC LOAD      ACCESS:      37677  HIT:      18223  MISS:      19454
LLC RFO       ACCESS:      58362  HIT:       1008  MISS:      57354
LLC PREFETCH  ACCESS:     786898  HIT:     655884  MISS:     131014
LLC WRITEBACK ACCESS:      83679  HIT:      79128  MISS:       4551
LLC PREFETCH  REQUESTED:     840644  ISSUED:     827687  USEFUL:      15158  USELESS:     177392
LLC AVERAGE MISS LATENCY: 232.693 cycles
Major fault: 0 Minor fault: 4650
CPU 0 L1D next line prefetcher final stats

L2C Signature Path Prefetcher final stats
LLC Next Line Prefetcher Final Stats: none

DRAM Statistics
 CHANNEL 0
 RQ ROW_BUFFER_HIT:      85253  ROW_BUFFER_MISS:     122520
 DBUS_CONGESTED:     135295
 WQ ROW_BUFFER_HIT:       9682  ROW_BUFFER_MISS:      74308  FULL:          0

 AVG_CONGESTED_CYCLE: 6

CPU 0 Branch Prediction Accuracy: 99.8058% MPKI: 0.066635 Average ROB Occupancy at Mispredict: 57.1769

Branch types
NOT_BRANCH: 193136647 96.5683%
BRANCH_DIRECT_JUMP: 153540 0.07677%
BRANCH_INDIRECT: 9706 0.004853%
BRANCH_CONDITIONAL: 5503927 2.75196%
BRANCH_DIRECT_CALL: 288747 0.144373%
BRANCH_INDIRECT_CALL: 309179 0.154589%
BRANCH_RETURN: 597921 0.29896%
BRANCH_OTHER: 0 0%

