
*** ChampSim Multicore Out-of-Order Simulator ***

Warmup Instructions: 50000000
Simulation Instructions: 200000000
Number of CPUs: 1
LLC sets: 2048
LLC ways: 16
Off-chip DRAM Size: 4096 MB Channels: 1 Width: 64-bit Data Rate: 3200 MT/s

CPU 0 runs trab_traces//638.imagick_s-4128B.champsimtrace.xz
CPU 0 L1D next line prefetcher
L2C Signature Path Prefetcher
Initialize DRRIP state
Assign rand_sets[0]: 454  LLC: 2048
rand_sets[0]: 454
Assign rand_sets[1]: 1662  LLC: 2048
rand_sets[1]: 1662
Assign rand_sets[2]: 1921  LLC: 2048
rand_sets[2]: 1921
Assign rand_sets[3]: 1131  LLC: 2048
rand_sets[3]: 1131
Assign rand_sets[4]: 331  LLC: 2048
rand_sets[4]: 331
Assign rand_sets[5]: 1531  LLC: 2048
rand_sets[5]: 1531
Assign rand_sets[6]: 482  LLC: 2048
rand_sets[6]: 482
Assign rand_sets[7]: 1275  LLC: 2048
rand_sets[7]: 1275
Assign rand_sets[8]: 1876  LLC: 2048
rand_sets[8]: 1876
Assign rand_sets[9]: 2038  LLC: 2048
rand_sets[9]: 2038
Assign rand_sets[10]: 701  LLC: 2048
rand_sets[10]: 701
Assign rand_sets[11]: 479  LLC: 2048
rand_sets[11]: 479
Assign rand_sets[12]: 892  LLC: 2048
rand_sets[12]: 892
Assign rand_sets[13]: 1820  LLC: 2048
rand_sets[13]: 1820
Assign rand_sets[14]: 1505  LLC: 2048
rand_sets[14]: 1505
Assign rand_sets[15]: 1159  LLC: 2048
rand_sets[15]: 1159
Assign rand_sets[16]: 513  LLC: 2048
rand_sets[16]: 513
Assign rand_sets[17]: 703  LLC: 2048
rand_sets[17]: 703
Assign rand_sets[18]: 561  LLC: 2048
rand_sets[18]: 561
Assign rand_sets[19]: 990  LLC: 2048
rand_sets[19]: 990
Assign rand_sets[20]: 342  LLC: 2048
rand_sets[20]: 342
Assign rand_sets[21]: 882  LLC: 2048
rand_sets[21]: 882
Assign rand_sets[22]: 15  LLC: 2048
rand_sets[22]: 15
Assign rand_sets[23]: 71  LLC: 2048
rand_sets[23]: 71
Assign rand_sets[24]: 1127  LLC: 2048
rand_sets[24]: 1127
Assign rand_sets[25]: 1382  LLC: 2048
rand_sets[25]: 1382
Assign rand_sets[26]: 647  LLC: 2048
rand_sets[26]: 647
Assign rand_sets[27]: 857  LLC: 2048
rand_sets[27]: 857
Assign rand_sets[28]: 1450  LLC: 2048
rand_sets[28]: 1450
Assign rand_sets[29]: 1160  LLC: 2048
rand_sets[29]: 1160
Assign rand_sets[30]: 1852  LLC: 2048
rand_sets[30]: 1852
Assign rand_sets[31]: 1881  LLC: 2048
rand_sets[31]: 1881
Assign rand_sets[32]: 1770  LLC: 2048
rand_sets[32]: 1770
Assign rand_sets[33]: 1622  LLC: 2048
rand_sets[33]: 1622
Assign rand_sets[34]: 275  LLC: 2048
rand_sets[34]: 275
Assign rand_sets[35]: 635  LLC: 2048
rand_sets[35]: 635
Assign rand_sets[36]: 466  LLC: 2048
rand_sets[36]: 466
Assign rand_sets[37]: 1413  LLC: 2048
rand_sets[37]: 1413
Assign rand_sets[38]: 417  LLC: 2048
rand_sets[38]: 417
Assign rand_sets[39]: 472  LLC: 2048
rand_sets[39]: 472
Assign rand_sets[40]: 1340  LLC: 2048
rand_sets[40]: 1340
Assign rand_sets[41]: 852  LLC: 2048
rand_sets[41]: 852
Assign rand_sets[42]: 1365  LLC: 2048
rand_sets[42]: 1365
Assign rand_sets[43]: 47  LLC: 2048
rand_sets[43]: 47
Assign rand_sets[44]: 823  LLC: 2048
rand_sets[44]: 823
Assign rand_sets[45]: 686  LLC: 2048
rand_sets[45]: 686
Assign rand_sets[46]: 1637  LLC: 2048
rand_sets[46]: 1637
Assign rand_sets[47]: 1115  LLC: 2048
rand_sets[47]: 1115
Assign rand_sets[48]: 986  LLC: 2048
rand_sets[48]: 986
Assign rand_sets[49]: 258  LLC: 2048
rand_sets[49]: 258
Assign rand_sets[50]: 633  LLC: 2048
rand_sets[50]: 633
Assign rand_sets[51]: 920  LLC: 2048
rand_sets[51]: 920
Assign rand_sets[52]: 204  LLC: 2048
rand_sets[52]: 204
Assign rand_sets[53]: 227  LLC: 2048
rand_sets[53]: 227
Assign rand_sets[54]: 1818  LLC: 2048
rand_sets[54]: 1818
Assign rand_sets[55]: 886  LLC: 2048
rand_sets[55]: 886
Assign rand_sets[56]: 1422  LLC: 2048
rand_sets[56]: 1422
Assign rand_sets[57]: 607  LLC: 2048
rand_sets[57]: 607
Assign rand_sets[58]: 217  LLC: 2048
rand_sets[58]: 217
Assign rand_sets[59]: 1945  LLC: 2048
rand_sets[59]: 1945
Assign rand_sets[60]: 143  LLC: 2048
rand_sets[60]: 143
Assign rand_sets[61]: 1311  LLC: 2048
rand_sets[61]: 1311
Assign rand_sets[62]: 319  LLC: 2048
rand_sets[62]: 319
Assign rand_sets[63]: 1846  LLC: 2048
rand_sets[63]: 1846
LLC Next Line Prefetcher
Heartbeat CPU 0 instructions: 10000000 cycles: 3604856 heartbeat IPC: 2.77404 cumulative IPC: 2.77404 (Simulation time: 0 hr 0 min 16 sec) 
Heartbeat CPU 0 instructions: 20000002 cycles: 7209192 heartbeat IPC: 2.77444 cumulative IPC: 2.77424 (Simulation time: 0 hr 0 min 33 sec) 
Heartbeat CPU 0 instructions: 30000000 cycles: 10813355 heartbeat IPC: 2.77457 cumulative IPC: 2.77435 (Simulation time: 0 hr 0 min 49 sec) 
Heartbeat CPU 0 instructions: 40000003 cycles: 14418062 heartbeat IPC: 2.77415 cumulative IPC: 2.7743 (Simulation time: 0 hr 1 min 6 sec) 
Heartbeat CPU 0 instructions: 50000002 cycles: 18022325 heartbeat IPC: 2.77449 cumulative IPC: 2.77434 (Simulation time: 0 hr 1 min 22 sec) 

Warmup complete CPU 0 instructions: 50000002 cycles: 18022325 (Simulation time: 0 hr 1 min 22 sec) 

Heartbeat CPU 0 instructions: 60000000 cycles: 23461442 heartbeat IPC: 1.83853 cumulative IPC: 1.83853 (Simulation time: 0 hr 1 min 32 sec) 
Heartbeat CPU 0 instructions: 70000001 cycles: 28899270 heartbeat IPC: 1.83897 cumulative IPC: 1.83875 (Simulation time: 0 hr 1 min 42 sec) 
Heartbeat CPU 0 instructions: 80000003 cycles: 34335944 heartbeat IPC: 1.83936 cumulative IPC: 1.83895 (Simulation time: 0 hr 1 min 52 sec) 
Heartbeat CPU 0 instructions: 90000003 cycles: 39774509 heartbeat IPC: 1.83872 cumulative IPC: 1.8389 (Simulation time: 0 hr 2 min 2 sec) 
Heartbeat CPU 0 instructions: 100000000 cycles: 45211379 heartbeat IPC: 1.83929 cumulative IPC: 1.83898 (Simulation time: 0 hr 2 min 11 sec) 
Heartbeat CPU 0 instructions: 110000000 cycles: 50648349 heartbeat IPC: 1.83926 cumulative IPC: 1.83902 (Simulation time: 0 hr 2 min 21 sec) 
Heartbeat CPU 0 instructions: 120000003 cycles: 56085961 heartbeat IPC: 1.83904 cumulative IPC: 1.83903 (Simulation time: 0 hr 2 min 31 sec) 
Heartbeat CPU 0 instructions: 130000001 cycles: 61521509 heartbeat IPC: 1.83974 cumulative IPC: 1.83911 (Simulation time: 0 hr 2 min 41 sec) 
Heartbeat CPU 0 instructions: 140000000 cycles: 66958263 heartbeat IPC: 1.83933 cumulative IPC: 1.83914 (Simulation time: 0 hr 2 min 51 sec) 
Heartbeat CPU 0 instructions: 150000002 cycles: 72396492 heartbeat IPC: 1.83883 cumulative IPC: 1.83911 (Simulation time: 0 hr 3 min 1 sec) 
Heartbeat CPU 0 instructions: 160000001 cycles: 77833771 heartbeat IPC: 1.83916 cumulative IPC: 1.83911 (Simulation time: 0 hr 3 min 11 sec) 
Heartbeat CPU 0 instructions: 170000003 cycles: 83271136 heartbeat IPC: 1.83913 cumulative IPC: 1.83911 (Simulation time: 0 hr 3 min 21 sec) 
Heartbeat CPU 0 instructions: 180000003 cycles: 88708934 heartbeat IPC: 1.83898 cumulative IPC: 1.8391 (Simulation time: 0 hr 3 min 31 sec) 
Heartbeat CPU 0 instructions: 190000000 cycles: 94144953 heartbeat IPC: 1.83958 cumulative IPC: 1.83914 (Simulation time: 0 hr 3 min 40 sec) 
Heartbeat CPU 0 instructions: 200000000 cycles: 99582817 heartbeat IPC: 1.83896 cumulative IPC: 1.83913 (Simulation time: 0 hr 3 min 50 sec) 
Heartbeat CPU 0 instructions: 210000003 cycles: 105021467 heartbeat IPC: 1.83869 cumulative IPC: 1.8391 (Simulation time: 0 hr 3 min 59 sec) 
Heartbeat CPU 0 instructions: 220000000 cycles: 110458735 heartbeat IPC: 1.83916 cumulative IPC: 1.8391 (Simulation time: 0 hr 4 min 9 sec) 
Heartbeat CPU 0 instructions: 230000001 cycles: 115896472 heartbeat IPC: 1.839 cumulative IPC: 1.8391 (Simulation time: 0 hr 4 min 19 sec) 
Heartbeat CPU 0 instructions: 240000003 cycles: 121334077 heartbeat IPC: 1.83905 cumulative IPC: 1.83909 (Simulation time: 0 hr 4 min 29 sec) 
Heartbeat CPU 0 instructions: 250000003 cycles: 126769399 heartbeat IPC: 1.83982 cumulative IPC: 1.83913 (Simulation time: 0 hr 4 min 39 sec) 
Finished CPU 0 instructions: 200000001 cycles: 108747074 cumulative IPC: 1.83913 (Simulation time: 0 hr 4 min 39 sec) 

ChampSim completed all CPUs

Region of Interest Statistics

CPU 0 cumulative IPC: 1.83913 instructions: 200000001 cycles: 108747074
L1D TOTAL     ACCESS:   75665067  HIT:   75578397  MISS:      86670
L1D LOAD      ACCESS:   34834841  HIT:   34806960  MISS:      27881
L1D RFO       ACCESS:    6339238  HIT:    6337843  MISS:       1395
L1D PREFETCH  ACCESS:   34490988  HIT:   34433594  MISS:      57394
L1D WRITEBACK ACCESS:          0  HIT:          0  MISS:          0
L1D PREFETCH  REQUESTED:   47811659  ISSUED:   47377647  USEFUL:      56140  USELESS:      18577
L1D AVERAGE MISS LATENCY: 17.0598 cycles
L1I TOTAL     ACCESS:   33726075  HIT:   33726075  MISS:          0
L1I LOAD      ACCESS:   33726075  HIT:   33726075  MISS:          0
L1I RFO       ACCESS:          0  HIT:          0  MISS:          0
L1I PREFETCH  ACCESS:          0  HIT:          0  MISS:          0
L1I WRITEBACK ACCESS:          0  HIT:          0  MISS:          0
L1I PREFETCH  REQUESTED:         77  ISSUED:         77  USEFUL:         13  USELESS:          0
L1I AVERAGE MISS LATENCY: -nan cycles
L2C TOTAL     ACCESS:     107197  HIT:      85217  MISS:      21980
L2C LOAD      ACCESS:      23396  HIT:      23069  MISS:        327
L2C RFO       ACCESS:       1395  HIT:        810  MISS:        585
L2C PREFETCH  ACCESS:      81012  HIT:      59944  MISS:      21068
L2C WRITEBACK ACCESS:       1394  HIT:       1394  MISS:          0
L2C PREFETCH  REQUESTED:     312072  ISSUED:     254825  USEFUL:       4043  USELESS:      16126
L2C AVERAGE MISS LATENCY: 53.5626 cycles
LLC TOTAL     ACCESS:     225173  HIT:     203371  MISS:      21802
LLC LOAD      ACCESS:        327  HIT:          0  MISS:        327
LLC RFO       ACCESS:        585  HIT:          0  MISS:        585
LLC PREFETCH  ACCESS:     223748  HIT:     202869  MISS:      20879
LLC WRITEBACK ACCESS:        513  HIT:        502  MISS:         11
LLC PREFETCH  REQUESTED:     230295  ISSUED:     226150  USEFUL:          5  USELESS:         71
LLC AVERAGE MISS LATENCY: 130.907 cycles
Major fault: 0 Minor fault: 490
CPU 0 L1D next line prefetcher final stats

L2C Signature Path Prefetcher final stats
LLC Next Line Prefetcher Final Stats: none

DRAM Statistics
 CHANNEL 0
 RQ ROW_BUFFER_HIT:      12525  ROW_BUFFER_MISS:       9266
 DBUS_CONGESTED:       9646
 WQ ROW_BUFFER_HIT:          0  ROW_BUFFER_MISS:          0  FULL:          0

 AVG_CONGESTED_CYCLE: 6

CPU 0 Branch Prediction Accuracy: 99.565% MPKI: 0.84178 Average ROB Occupancy at Mispredict: 30.8007

Branch types
NOT_BRANCH: 161296205 80.6481%
BRANCH_DIRECT_JUMP: 205772 0.102886%
BRANCH_INDIRECT: 0 0%
BRANCH_CONDITIONAL: 38104823 19.0524%
BRANCH_DIRECT_CALL: 196434 0.098217%
BRANCH_INDIRECT_CALL: 0 0%
BRANCH_RETURN: 196434 0.098217%
BRANCH_OTHER: 0 0%

