
*** ChampSim Multicore Out-of-Order Simulator ***

Warmup Instructions: 50000000
Simulation Instructions: 200000000
Number of CPUs: 1
LLC sets: 2048
LLC ways: 16
Off-chip DRAM Size: 4096 MB Channels: 1 Width: 64-bit Data Rate: 3200 MT/s

CPU 0 runs trab_traces//648.exchange2_s-1712B.champsimtrace.xz
CPU 0 L1D next line prefetcher
L2C Signature Path Prefetcher
Initialize DRRIP state
Assign rand_sets[0]: 454  LLC: 2048
rand_sets[0]: 454
Assign rand_sets[1]: 1662  LLC: 2048
rand_sets[1]: 1662
Assign rand_sets[2]: 1921  LLC: 2048
rand_sets[2]: 1921
Assign rand_sets[3]: 1131  LLC: 2048
rand_sets[3]: 1131
Assign rand_sets[4]: 331  LLC: 2048
rand_sets[4]: 331
Assign rand_sets[5]: 1531  LLC: 2048
rand_sets[5]: 1531
Assign rand_sets[6]: 482  LLC: 2048
rand_sets[6]: 482
Assign rand_sets[7]: 1275  LLC: 2048
rand_sets[7]: 1275
Assign rand_sets[8]: 1876  LLC: 2048
rand_sets[8]: 1876
Assign rand_sets[9]: 2038  LLC: 2048
rand_sets[9]: 2038
Assign rand_sets[10]: 701  LLC: 2048
rand_sets[10]: 701
Assign rand_sets[11]: 479  LLC: 2048
rand_sets[11]: 479
Assign rand_sets[12]: 892  LLC: 2048
rand_sets[12]: 892
Assign rand_sets[13]: 1820  LLC: 2048
rand_sets[13]: 1820
Assign rand_sets[14]: 1505  LLC: 2048
rand_sets[14]: 1505
Assign rand_sets[15]: 1159  LLC: 2048
rand_sets[15]: 1159
Assign rand_sets[16]: 513  LLC: 2048
rand_sets[16]: 513
Assign rand_sets[17]: 703  LLC: 2048
rand_sets[17]: 703
Assign rand_sets[18]: 561  LLC: 2048
rand_sets[18]: 561
Assign rand_sets[19]: 990  LLC: 2048
rand_sets[19]: 990
Assign rand_sets[20]: 342  LLC: 2048
rand_sets[20]: 342
Assign rand_sets[21]: 882  LLC: 2048
rand_sets[21]: 882
Assign rand_sets[22]: 15  LLC: 2048
rand_sets[22]: 15
Assign rand_sets[23]: 71  LLC: 2048
rand_sets[23]: 71
Assign rand_sets[24]: 1127  LLC: 2048
rand_sets[24]: 1127
Assign rand_sets[25]: 1382  LLC: 2048
rand_sets[25]: 1382
Assign rand_sets[26]: 647  LLC: 2048
rand_sets[26]: 647
Assign rand_sets[27]: 857  LLC: 2048
rand_sets[27]: 857
Assign rand_sets[28]: 1450  LLC: 2048
rand_sets[28]: 1450
Assign rand_sets[29]: 1160  LLC: 2048
rand_sets[29]: 1160
Assign rand_sets[30]: 1852  LLC: 2048
rand_sets[30]: 1852
Assign rand_sets[31]: 1881  LLC: 2048
rand_sets[31]: 1881
Assign rand_sets[32]: 1770  LLC: 2048
rand_sets[32]: 1770
Assign rand_sets[33]: 1622  LLC: 2048
rand_sets[33]: 1622
Assign rand_sets[34]: 275  LLC: 2048
rand_sets[34]: 275
Assign rand_sets[35]: 635  LLC: 2048
rand_sets[35]: 635
Assign rand_sets[36]: 466  LLC: 2048
rand_sets[36]: 466
Assign rand_sets[37]: 1413  LLC: 2048
rand_sets[37]: 1413
Assign rand_sets[38]: 417  LLC: 2048
rand_sets[38]: 417
Assign rand_sets[39]: 472  LLC: 2048
rand_sets[39]: 472
Assign rand_sets[40]: 1340  LLC: 2048
rand_sets[40]: 1340
Assign rand_sets[41]: 852  LLC: 2048
rand_sets[41]: 852
Assign rand_sets[42]: 1365  LLC: 2048
rand_sets[42]: 1365
Assign rand_sets[43]: 47  LLC: 2048
rand_sets[43]: 47
Assign rand_sets[44]: 823  LLC: 2048
rand_sets[44]: 823
Assign rand_sets[45]: 686  LLC: 2048
rand_sets[45]: 686
Assign rand_sets[46]: 1637  LLC: 2048
rand_sets[46]: 1637
Assign rand_sets[47]: 1115  LLC: 2048
rand_sets[47]: 1115
Assign rand_sets[48]: 986  LLC: 2048
rand_sets[48]: 986
Assign rand_sets[49]: 258  LLC: 2048
rand_sets[49]: 258
Assign rand_sets[50]: 633  LLC: 2048
rand_sets[50]: 633
Assign rand_sets[51]: 920  LLC: 2048
rand_sets[51]: 920
Assign rand_sets[52]: 204  LLC: 2048
rand_sets[52]: 204
Assign rand_sets[53]: 227  LLC: 2048
rand_sets[53]: 227
Assign rand_sets[54]: 1818  LLC: 2048
rand_sets[54]: 1818
Assign rand_sets[55]: 886  LLC: 2048
rand_sets[55]: 886
Assign rand_sets[56]: 1422  LLC: 2048
rand_sets[56]: 1422
Assign rand_sets[57]: 607  LLC: 2048
rand_sets[57]: 607
Assign rand_sets[58]: 217  LLC: 2048
rand_sets[58]: 217
Assign rand_sets[59]: 1945  LLC: 2048
rand_sets[59]: 1945
Assign rand_sets[60]: 143  LLC: 2048
rand_sets[60]: 143
Assign rand_sets[61]: 1311  LLC: 2048
rand_sets[61]: 1311
Assign rand_sets[62]: 319  LLC: 2048
rand_sets[62]: 319
Assign rand_sets[63]: 1846  LLC: 2048
rand_sets[63]: 1846
LLC Next Line Prefetcher
Heartbeat CPU 0 instructions: 10000001 cycles: 3116219 heartbeat IPC: 3.20902 cumulative IPC: 3.20902 (Simulation time: 0 hr 0 min 16 sec) 
Heartbeat CPU 0 instructions: 20000001 cycles: 6214049 heartbeat IPC: 3.22807 cumulative IPC: 3.21851 (Simulation time: 0 hr 0 min 31 sec) 
Heartbeat CPU 0 instructions: 30000003 cycles: 9323834 heartbeat IPC: 3.21566 cumulative IPC: 3.21756 (Simulation time: 0 hr 0 min 47 sec) 
Heartbeat CPU 0 instructions: 40000000 cycles: 12430381 heartbeat IPC: 3.21901 cumulative IPC: 3.21792 (Simulation time: 0 hr 1 min 2 sec) 
Heartbeat CPU 0 instructions: 50000002 cycles: 15546440 heartbeat IPC: 3.20918 cumulative IPC: 3.21617 (Simulation time: 0 hr 1 min 18 sec) 

Warmup complete CPU 0 instructions: 50000002 cycles: 15546440 (Simulation time: 0 hr 1 min 18 sec) 

Heartbeat CPU 0 instructions: 60000001 cycles: 20560650 heartbeat IPC: 1.99433 cumulative IPC: 1.99433 (Simulation time: 0 hr 1 min 29 sec) 
Heartbeat CPU 0 instructions: 70000000 cycles: 25535165 heartbeat IPC: 2.01025 cumulative IPC: 2.00226 (Simulation time: 0 hr 1 min 39 sec) 
Heartbeat CPU 0 instructions: 80000000 cycles: 30492686 heartbeat IPC: 2.01714 cumulative IPC: 2.00719 (Simulation time: 0 hr 1 min 50 sec) 
Heartbeat CPU 0 instructions: 90000000 cycles: 35441398 heartbeat IPC: 2.02073 cumulative IPC: 2.01056 (Simulation time: 0 hr 2 min 0 sec) 
Heartbeat CPU 0 instructions: 100000002 cycles: 40420112 heartbeat IPC: 2.00855 cumulative IPC: 2.01016 (Simulation time: 0 hr 2 min 10 sec) 
Heartbeat CPU 0 instructions: 110000000 cycles: 45426010 heartbeat IPC: 1.99764 cumulative IPC: 2.00806 (Simulation time: 0 hr 2 min 21 sec) 
Heartbeat CPU 0 instructions: 120000001 cycles: 50402252 heartbeat IPC: 2.00955 cumulative IPC: 2.00827 (Simulation time: 0 hr 2 min 31 sec) 
Heartbeat CPU 0 instructions: 130000000 cycles: 55419407 heartbeat IPC: 1.99316 cumulative IPC: 2.00637 (Simulation time: 0 hr 2 min 42 sec) 
Heartbeat CPU 0 instructions: 140000000 cycles: 60407004 heartbeat IPC: 2.00497 cumulative IPC: 2.00622 (Simulation time: 0 hr 2 min 52 sec) 
Heartbeat CPU 0 instructions: 150000000 cycles: 65375229 heartbeat IPC: 2.01279 cumulative IPC: 2.00687 (Simulation time: 0 hr 3 min 3 sec) 
Heartbeat CPU 0 instructions: 160000000 cycles: 70358781 heartbeat IPC: 2.0066 cumulative IPC: 2.00685 (Simulation time: 0 hr 3 min 13 sec) 
Heartbeat CPU 0 instructions: 170000001 cycles: 75344009 heartbeat IPC: 2.00593 cumulative IPC: 2.00677 (Simulation time: 0 hr 3 min 24 sec) 
Heartbeat CPU 0 instructions: 180000001 cycles: 80319307 heartbeat IPC: 2.00993 cumulative IPC: 2.00701 (Simulation time: 0 hr 3 min 34 sec) 
Heartbeat CPU 0 instructions: 190000003 cycles: 85281141 heartbeat IPC: 2.01538 cumulative IPC: 2.00761 (Simulation time: 0 hr 3 min 45 sec) 
Heartbeat CPU 0 instructions: 200000001 cycles: 90281792 heartbeat IPC: 1.99974 cumulative IPC: 2.00708 (Simulation time: 0 hr 3 min 55 sec) 
Heartbeat CPU 0 instructions: 210000000 cycles: 95278180 heartbeat IPC: 2.00145 cumulative IPC: 2.00673 (Simulation time: 0 hr 4 min 5 sec) 
Heartbeat CPU 0 instructions: 220000000 cycles: 100283500 heartbeat IPC: 1.99787 cumulative IPC: 2.00621 (Simulation time: 0 hr 4 min 15 sec) 
Heartbeat CPU 0 instructions: 230000003 cycles: 105274039 heartbeat IPC: 2.00379 cumulative IPC: 2.00607 (Simulation time: 0 hr 4 min 25 sec) 
Heartbeat CPU 0 instructions: 240000000 cycles: 110247981 heartbeat IPC: 2.01048 cumulative IPC: 2.0063 (Simulation time: 0 hr 4 min 35 sec) 
Heartbeat CPU 0 instructions: 250000003 cycles: 115215948 heartbeat IPC: 2.0129 cumulative IPC: 2.00663 (Simulation time: 0 hr 4 min 45 sec) 
Finished CPU 0 instructions: 200000001 cycles: 99669508 cumulative IPC: 2.00663 (Simulation time: 0 hr 4 min 45 sec) 

ChampSim completed all CPUs

Region of Interest Statistics

CPU 0 cumulative IPC: 2.00663 instructions: 200000001 cycles: 99669508
L1D TOTAL     ACCESS:   86003530  HIT:   86003530  MISS:          0
L1D LOAD      ACCESS:   27309768  HIT:   27309768  MISS:          0
L1D RFO       ACCESS:   32667060  HIT:   32667060  MISS:          0
L1D PREFETCH  ACCESS:   26026702  HIT:   26026702  MISS:          0
L1D WRITEBACK ACCESS:          0  HIT:          0  MISS:          0
L1D PREFETCH  REQUESTED:   36343894  ISSUED:   35812157  USEFUL:         20  USELESS:          0
L1D AVERAGE MISS LATENCY: -nan cycles
L1I TOTAL     ACCESS:   34378873  HIT:   34378873  MISS:          0
L1I LOAD      ACCESS:   34378873  HIT:   34378873  MISS:          0
L1I RFO       ACCESS:          0  HIT:          0  MISS:          0
L1I PREFETCH  ACCESS:          0  HIT:          0  MISS:          0
L1I WRITEBACK ACCESS:          0  HIT:          0  MISS:          0
L1I PREFETCH  REQUESTED:        304  ISSUED:        304  USEFUL:         68  USELESS:          0
L1I AVERAGE MISS LATENCY: -nan cycles
L2C TOTAL     ACCESS:          0  HIT:          0  MISS:          0
L2C LOAD      ACCESS:          0  HIT:          0  MISS:          0
L2C RFO       ACCESS:          0  HIT:          0  MISS:          0
L2C PREFETCH  ACCESS:          0  HIT:          0  MISS:          0
L2C WRITEBACK ACCESS:          0  HIT:          0  MISS:          0
L2C PREFETCH  REQUESTED:         73  ISSUED:         73  USEFUL:          2  USELESS:          0
L2C AVERAGE MISS LATENCY: -nan cycles
LLC TOTAL     ACCESS:          0  HIT:          0  MISS:          0
LLC LOAD      ACCESS:          0  HIT:          0  MISS:          0
LLC RFO       ACCESS:          0  HIT:          0  MISS:          0
LLC PREFETCH  ACCESS:          0  HIT:          0  MISS:          0
LLC WRITEBACK ACCESS:          0  HIT:          0  MISS:          0
LLC PREFETCH  REQUESTED:        304  ISSUED:        300  USEFUL:         49  USELESS:          0
LLC AVERAGE MISS LATENCY: -nan cycles
Major fault: 0 Minor fault: 11
CPU 0 L1D next line prefetcher final stats

L2C Signature Path Prefetcher final stats
LLC Next Line Prefetcher Final Stats: none

DRAM Statistics
 CHANNEL 0
 RQ ROW_BUFFER_HIT:          0  ROW_BUFFER_MISS:          0
 DBUS_CONGESTED:          0
 WQ ROW_BUFFER_HIT:          0  ROW_BUFFER_MISS:          0  FULL:          0

 AVG_CONGESTED_CYCLE: -

CPU 0 Branch Prediction Accuracy: 99.4626% MPKI: 0.72073 Average ROB Occupancy at Mispredict: 24.7138

Branch types
NOT_BRANCH: 173177270 86.5886%
BRANCH_DIRECT_JUMP: 2156127 1.07806%
BRANCH_INDIRECT: 0 0%
BRANCH_CONDITIONAL: 24633569 12.3168%
BRANCH_DIRECT_CALL: 16365 0.0081825%
BRANCH_INDIRECT_CALL: 0 0%
BRANCH_RETURN: 16364 0.008182%
BRANCH_OTHER: 0 0%

